<!-- Author Ronald Tchuekou -->
<configuration>
    <input>
        <net-file value="sumo.net.xml"/>
        <route-files value="sumo.rou.xml"/>
    </input>
    <time>
        <begin value="0"/>
        <end value="2000"/>
    </time>
</configuration>